Circuit: * C:\Users\Arek\Desktop\Praca Dyplomowa\LTSpice\Draft.asc

Warning: Multiple definitions of model "pnp1" Type: BJT
Warning: Multiple definitions of model "npn1" Type: BJT
Direct Newton iteration for .op point succeeded.
Ignoring empty pin current: Ix(ic2a:vcc)
Ignoring empty pin current: Ix(ic3:vcc)
Ignoring empty pin current: Ix(ic2a:vcc)
Ignoring empty pin current: Ix(ic3:vcc)

t1: time=4.74011e-005 at 4.74011e-005
t2: time=7.93884e-005 at 7.93884e-005
dischargingtime: (t2-t1)*1e6=31.9873
t3: time=0.000111403 at 0.000111403
chargingtime: (t3-t2)*1e6=32.0144
t4: time=4.94991e-005 at 4.94991e-005
inttime: t4-t1=2.09797e-006
chargingticks: (t3-t2)*16e6=512.231
dischargingticks: (t2-t1)*16e6=511.797


Date: Sat Jul 09 13:05:46 2022
Total elapsed time: 48.290 seconds.

tnom = 27
temp = 27
method = modified trap
totiter = 181358
traniter = 181339
tranpoints = 90362
accept = 89909
rejected = 453
matrix size = 358
fillins = 121
solver = Alternate
Thread vector: 141.3/59.7[4] 17.7/9.8[4] 14.6/8.7[4] 5.8/6.6[1]  2592/500
Matrix Compiler1: 14.35 KB object code size  17.1/8.2/[4.1]
Matrix Compiler2: 28.65 KB object code size  11.4/16.9/[7.4]

