Circuit: * C:\Users\Arek\Desktop\Praca Dyplomowa\LTSpice\Draft.asc

Warning: Multiple definitions of model "pnp1" Type: BJT
Warning: Multiple definitions of model "npn1" Type: BJT
Direct Newton iteration for .op point succeeded.
Ignoring empty pin current: Ix(ic2a:vcc)
Ignoring empty pin current: Ix(ic3:vcc)
Ignoring empty pin current: Ix(ic2a:vcc)
Ignoring empty pin current: Ix(ic3:vcc)


Measurement "t1" FAIL'ed

Measurement "t2" FAIL'ed

Measurement "dischargingtime" FAIL'ed

Measurement "t3" FAIL'ed

Measurement "chargingtime" FAIL'ed

Measurement "t4" FAIL'ed

Measurement "inttime" FAIL'ed

Measurement "chargingticks" FAIL'ed

Measurement "dischargingticks" FAIL'ed


Date: Sat Nov 05 12:58:15 2022
Total elapsed time: 76.392 seconds.

tnom = 27
temp = 27
method = modified trap
totiter = 444851
traniter = 444832
tranpoints = 222374
accept = 222337
rejected = 37
matrix size = 358
fillins = 121
solver = Normal
Thread vector: 50.7/22.8[4] 8.5/6.1[4] 11.9/9.1[4] 2.3/3.6[1]  2592/500
Matrix Compiler1: 11.94 KB object code size  9.1/4.9/[2.1]
Matrix Compiler2: 25.18 KB object code size  6.2/6.8/[3.3]

