Circuit: * C:\Users\Arek\Desktop\Praca Dyplomowa\LTSpice\Draft.asc

Warning: Multiple definitions of model "pnp1" Type: BJT
Warning: Multiple definitions of model "npn1" Type: BJT
Direct Newton iteration for .op point succeeded.
Ignoring empty pin current: Ix(ic2a:vcc)
Ignoring empty pin current: Ix(ic3:vcc)
Ignoring empty pin current: Ix(ic2a:vcc)
Ignoring empty pin current: Ix(ic3:vcc)

t1: time=0.000148743 at 0.000148743
t2: time=0.000250603 at 0.000250603
dischargingtime: (t2-t1)*1e6=101.86
t3: time=0.000352566 at 0.000352566
chargingtime: (t3-t2)*1e6=101.963
t4: time=0.000156746 at 0.000156746
inttime: t4-t1=8.00293e-006
chargingticks: (t3-t2)*16e6=1631.4
dischargingticks: (t2-t1)*16e6=1629.75


Date: Tue Oct 11 23:57:45 2022
Total elapsed time: 110.950 seconds.

tnom = 27
temp = 27
method = modified trap
totiter = 447649
traniter = 447630
tranpoints = 223442
accept = 223121
rejected = 321
matrix size = 358
fillins = 121
solver = Normal
Thread vector: 37.8/22.1[4] 8.4/4.5[4] 9.8/5.2[4] 2.1/2.5[1]  2592/500
Matrix Compiler1: 11.94 KB object code size  8.3/4.4/[2.1]
Matrix Compiler2: 25.18 KB object code size  4.9/7.0/[2.7]

